FoamFile
{
    version     2.0;
    format      ascii;
    class       dictionary;
    object      blockMeshDict;
}

convertToMeters 1;

vertices
(
    (-41.571743 -25.454858 -63.062144)
    (80.580052 -25.454858 -63.062144)
    (80.580052 155.085256 -63.062144)
    (-41.571743 155.085256 -63.062144)
    (-41.571743 -25.454858 62.738253)
    (80.580052 -25.454858 62.738253)
    (80.580052 155.085256 62.738253)
    (-41.571743 155.085256 62.738253)
);

blocks
(
    hex (0 1 2 3 4 5 6 7) (245 362 252) simpleGrading (1 1 1)
);

edges
(
);

boundary
(
    world
    {
        type patch;
        faces
        (
            (3 7 6 2)
            (0 4 7 3)
            (2 6 5 1)
            (1 5 4 0)
            (0 3 2 1)
            (4 5 6 7)
        );
    }
);

mergePatchPairs
(
);
