/*--------------------------------*- C++ -*----------------------------------*\
| =========                 |                                                 |
| \\      /  F ield         | OpenFOAM: The Open Source CFD Toolbox           |
|  \\    /   O peration     | Version:  9                                     |
|   \\  /    A nd           | Web:      www.OpenFOAM.org                      |
|    \\/     M anipulation  |                                                 |
\*---------------------------------------------------------------------------*/
FoamFile
{
    format      ascii;
    class       dictionary;
    location    "constant";
    object      transportProperties;
}
// * * * * * * * * * * * * * * * * * * * * * * * * * * * * * * * * * * * * * //

// Transport model
transportModel  Newtonian;

// Kinematic viscosity for Re = 2000
// Re = U*L/nu, where U=1 m/s, L=1 m
// Therefore: nu = U*L/Re = 1/2000 = .00050000
nu              [0 2 -1 0 0 0 0] .00050000;

// ************************************************************************* //
